# created with PyMOL
@<TRIPOS>MOLECULE
untitled
15 16 1
SMALL
USER_CHARGES
@<TRIPOS>ATOM
1	  C1	-4.289	-19.800	34.263	C  	1	LG1254	0.000	
2	  N2	-3.194	-20.352	34.015	N.2	1	LG1254	0.000	
3	  O3	-3.737	-21.872	33.197	O.3	1	LG1254	0.000	
4	  C4	-5.021	-21.725	33.226	C.ar	1	LG1254	0.000	
5	  C5	-5.483	-20.515	33.843	C.ar	1	LG1254	0.000	
6	  C6	-5.976	-22.639	32.711	C.ar	1	LG1254	0.000	
7	  C7	-7.321	-22.335	32.820	C.ar	1	LG1254	0.000	
8	  C8	-6.832	-20.208	33.953	C.ar	1	LG1254	0.000	
9	  C9	-7.746	-21.138	33.432	C.ar	1	LG1254	0.000	
10	 N10	-9.166	-20.873	33.518	N.pl3	1	LG1254	0.000	
11	 O11	-9.545	-19.824	34.054	O.co2	1	LG1254	0.000	
12	 O12	-9.955	-21.715	33.046	O.co2	1	LG1254	0.000	
13	 H13	-5.642	-23.561	32.240	 H	1	LG1254	0.000	
14	 H14	-8.072	-23.016	32.437	 H	1	LG1254	0.000	
15	 H15	-7.147	-19.283	34.428	 H	1	LG1254	0.000	
@<TRIPOS>BOND
0 1 2 ar
1 1 5 ar
2 2 3 ar
3 3 4 ar
4 4 5 ar
5 4 6 ar
6 5 8 ar
7 6 7 ar
8 6 13 1
9 7 9 ar
10 7 14 1
11 8 9 ar
12 8 15 1
13 9 10 1
14 10 11 ar
15 10 12 ar
@<TRIPOS>SUBSTRUCTURE
1	LG1254	1	GROUP	1 ****	LG1
