# created with PyMOL
@<TRIPOS>MOLECULE
untitled
47 49 1
SMALL
USER_CHARGES
@<TRIPOS>ATOM
1	  C1	-1.117	-1.444	-1.438	C.3	1	REN1	0.000	
2	  N1	-0.819	-0.145	-2.018	N.3	1	REN1	0.000	
3	  O1	-7.257	-2.923	-1.277	O.3	1	REN1	0.000	
4	  C2	-0.467	0.859	-1.014	C.3	1	REN1	0.000	
5	  O2	-5.510	-2.168	0.603	O.3	1	REN1	0.000	
6	  C3	-0.154	2.262	-1.582	C.3	1	REN1	0.000	
7	  O3	-0.905	2.798	-7.165	O.3	1	REN1	0.000	
8	  C4	-0.344	2.411	-3.075	C.ar	1	REN1	0.000	
9	  O4	0.615	4.606	-5.923	O.3	1	REN1	0.000	
10	  C5	0.247	3.486	-3.759	C.ar	1	REN1	0.000	
11	  C6	0.079	3.618	-5.137	C.ar	1	REN1	0.000	
12	  C7	-0.712	2.683	-5.814	C.ar	1	REN1	0.000	
13	  C8	-1.317	1.621	-5.154	C.ar	1	REN1	0.000	
14	  C9	-1.135	1.477	-3.774	C.ar	1	REN1	0.000	
15	 C10	-1.803	0.341	-3.002	C.3	1	REN1	0.000	
16	 C11	-3.173	0.867	-2.481	C.3	1	REN1	0.000	
17	 C12	-4.240	-0.163	-2.200	C.ar	1	REN1	0.000	
18	 C13	-4.380	-0.708	-0.917	C.ar	1	REN1	0.000	
19	 C14	-5.393	-1.632	-0.652	C.ar	1	REN1	0.000	
20	 C15	-6.292	-2.026	-1.651	C.ar	1	REN1	0.000	
21	 C16	-6.160	-1.472	-2.926	C.ar	1	REN1	0.000	
22	 C17	-5.140	-0.553	-3.200	C.ar	1	REN1	0.000	
23	 C18	-8.181	-3.337	-2.273	C.3	1	REN1	0.000	
24	 C19	1.423	5.569	-5.255	C.3	1	REN1	0.000	
25	  H1	-1.982	-0.471	-3.721	 H	1	REN1	0.000	
26	  H2	-1.373	-2.156	-2.231	 H	1	REN1	0.000	
27	  H3	-1.990	-1.391	-0.779	 H	1	REN1	0.000	
28	  H4	-0.280	-1.867	-0.879	 H	1	REN1	0.000	
29	  H5	0.419	0.517	-0.462	 H	1	REN1	0.000	
30	  H6	-1.262	0.954	-0.263	 H	1	REN1	0.000	
31	  H7	0.883	2.517	-1.331	 H	1	REN1	0.000	
32	  H8	-0.802	2.997	-1.087	 H	1	REN1	0.000	
33	  H9	0.833	4.201	-3.191	 H	1	REN1	0.000	
34	 H10	-1.917	0.913	-5.717	 H	1	REN1	0.000	
35	 H11	-3.598	1.558	-3.224	 H	1	REN1	0.000	
36	 H12	-3.031	1.494	-1.590	 H	1	REN1	0.000	
37	 H13	-3.692	-0.411	-0.131	 H	1	REN1	0.000	
38	 H14	-6.847	-1.723	-3.728	 H	1	REN1	0.000	
39	 H15	-5.069	-0.126	-4.199	 H	1	REN1	0.000	
40	 H16	-8.875	-4.046	-1.811	 H	1	REN1	0.000	
41	 H17	-7.674	-3.855	-3.094	 H	1	REN1	0.000	
42	 H18	-8.768	-2.490	-2.642	 H	1	REN1	0.000	
43	 H19	-4.692	-2.638	0.825	 H	1	REN1	0.000	
44	 H20	-1.480	2.043	-7.398	 H	1	REN1	0.000	
45	 H21	1.776	6.285	-6.003	 H	1	REN1	0.000	
46	 H22	2.304	5.103	-4.800	 H	1	REN1	0.000	
47	 H23	0.840	6.122	-4.512	 H	1	REN1	0.000	
@<TRIPOS>BOND
0 1 2 1
1 1 26 1
2 1 27 1
3 1 28 1
4 2 4 1
5 2 15 1
6 3 23 1
7 4 6 1
8 4 29 1
9 4 30 1
10 5 43 1
11 6 8 1
12 6 31 1
13 6 32 1
14 7 44 1
15 8 10 ar
16 8 14 ar
17 9 24 1
18 10 11 ar
19 10 33 1
20 11 9 1
21 11 12 ar
22 12 7 1
23 12 13 ar
24 13 14 ar
25 13 34 1
26 14 15 1
27 15 16 1
28 15 25 1
29 16 17 1
30 16 35 1
31 16 36 1
32 17 18 ar
33 17 22 ar
34 18 19 ar
35 18 37 1
36 19 5 1
37 19 20 ar
38 20 3 1
39 20 21 ar
40 21 22 ar
41 21 38 1
42 22 39 1
43 23 40 1
44 23 41 1
45 23 42 1
46 24 45 1
47 24 46 1
48 24 47 1
@<TRIPOS>SUBSTRUCTURE
1	REN1	1	GROUP	1 X	REN
